data_crystal

_cell_length_a 9.80640
_cell_length_b 10.66850
_cell_length_c 13.97120
_cell_angle_alpha 95.30240
_cell_angle_beta  110.54600
_cell_angle_gamma 74.73290

_symmetry_space_group_name_	'P 1'
_symmetry_space_group_name_H-M	'P 1'

loop_
_symmetry_equiv_pos_as_xyz
  x,y,z

loop_
_atom_site_label
_atom_site_type_symbol
_atom_site_fract_x
_atom_site_fract_y
_atom_site_fract_z
_atom_site_charge
Co	Co	0.62243 0.88012 0.24882 1.18000
Co	Co	0.87488 0.38395 0.74792 1.18100
Co	Co	0.37361 0.38012 0.75118 1.18700
Co	Co	0.12696 0.88395 0.25208 1.18000
H 	H 	0.83300 0.76730 0.12580 0.00900
H 	H 	0.84280 0.63980 0.98340 0.05900
H 	H 	0.41800 0.61460 0.93560 0.06900
H 	H 	0.42310 0.74200 0.08080 0.02000
H 	H 	0.90470 0.49070 0.56220 0.01400
H 	H 	0.76160 0.61190 0.41520 0.06500
H 	H 	0.39070 0.63690 0.48940 0.06400
H 	H 	0.54530 0.51100 0.63360 0.01900
H 	H 	0.50620 0.16690 0.30840 0.02300
H 	H 	0.50480 0.29630 0.45120 0.04200
H 	H 	0.74350 0.98270 0.62960 -0.02100
H 	H 	0.72890 0.85810 0.48460 0.05200
H 	H 	0.97890 0.40650 0.98620 0.00300
H 	H 	0.11330 0.28220 0.13260 0.05400
H 	H 	0.22400 0.98020 0.95260 0.01000
H 	H 	0.06760 0.10740 0.81120 0.04500
H 	H 	0.70720 0.26730 0.87420 0.01300
H 	H 	0.85940 0.13980 0.01660 0.07100
H 	H 	0.48240 0.11460 0.06440 0.07700
H 	H 	0.34230 0.24200 0.91920 0.02100
H 	H 	0.34250 0.99070 0.43780 -0.04100
H 	H 	0.34640 0.11190 0.58480 0.10000
H 	H 	0.90130 0.13690 0.51060 0.09800
H 	H 	0.91170 0.01100 0.36640 -0.01400
H 	H 	0.19780 0.66690 0.69160 0.01900
H 	H 	0.05360 0.79630 0.54880 0.05400
H 	H 	0.11390 0.48270 0.37040 0.06000
H 	H 	0.24430 0.35810 0.51540 0.02200
H 	H 	0.99270 0.90650 0.01380 -0.00400
H 	H 	0.98070 0.78220 0.86740 0.02800
H 	H 	0.27140 0.48020 0.04740 0.05100
H 	H 	0.25640 0.60740 0.18880 0.02600
C 	C 	0.74818 0.73530 0.08696 0.04200
C 	C 	0.75461 0.66020 0.00142 -0.05200
C 	C 	0.62945 0.61520 0.94230 -0.05600
C 	C 	0.50461 0.64510 0.97322 -0.05600
C 	C 	0.50919 0.72060 0.06038 0.04200
C 	C 	0.63180 0.53350 0.84780 0.37700
C 	C 	0.79931 0.52100 0.54722 0.04400
C 	C 	0.71486 0.59400 0.45972 -0.05900
C 	C 	0.56235 0.64040 0.43790 -0.05800
C 	C 	0.49614 0.60830 0.50328 -0.05200
C 	C 	0.58939 0.53340 0.58898 0.03700
C 	C 	0.46520 0.72610 0.34600 0.37300
C 	C 	0.55325 0.12850 0.37430 0.04300
C 	C 	0.55271 0.20620 0.45922 -0.01800
C 	C 	0.62239 0.15190 0.55618 -0.12000
C 	C 	0.69129 0.02200 0.56418 0.10300
C 	C 	0.68481 0.94890 0.47742 -0.07500
C 	C 	0.61960 0.23330 0.65060 0.39000
C 	C 	0.02628 0.31790 0.97916 0.05000
C 	C 	0.10899 0.24480 0.06758 -0.03700
C 	C 	0.18560 0.11620 0.06000 -0.09500
C 	C 	0.17157 0.06650 0.96154 0.02800
C 	C 	0.08068 0.14440 0.87736 0.00000
C 	C 	0.28070 0.03230 0.15220 0.42400
C 	C 	0.66122 0.23530 0.91304 0.05300
C 	C 	0.75319 0.16020 0.99858 -0.06500
C 	C 	0.68715 0.11520 0.05770 -0.04000
C 	C 	0.53139 0.14510 0.02678 -0.06000
C 	C 	0.44881 0.22060 0.93962 0.04800
C 	C 	0.78400 0.03350 0.15220 0.37300
C 	C 	0.25209 0.02100 0.45278 0.16600
C 	C 	0.25514 0.09400 0.54028 -0.13700
C 	C 	0.12445 0.14040 0.56210 0.01300
C 	C 	0.99286 0.10830 0.49672 -0.14600
C 	C 	0.00041 0.03340 0.41102 0.14600
C 	C 	0.11920 0.22610 0.65400 0.36800
C 	C 	0.17895 0.62850 0.62570 0.03900
C 	C 	0.09349 0.70620 0.54078 -0.05800
C 	C 	0.06621 0.65190 0.44382 -0.03600
C 	C 	0.12711 0.52200 0.43582 -0.05700
C 	C 	0.20739 0.44890 0.52258 0.03600
C 	C 	0.96900 0.73330 0.34940 0.32500
C 	C 	0.04712 0.81790 0.02084 0.03900
C 	C 	0.04141 0.74480 0.93242 -0.01500
C 	C 	0.12560 0.61620 0.94000 -0.07400
C 	C 	0.21003 0.56650 0.03846 -0.04100
C 	C 	0.20332 0.64440 0.12264 0.02800
C 	C 	0.12850 0.53230 0.84780 0.37700
N 	N 	0.62944 0.76470 0.11708 -0.21000
N 	N 	0.73837 0.49130 0.61174 -0.20900
N 	N 	0.61891 0.99930 0.38222 -0.20300
N 	N 	0.00939 0.27050 0.88438 -0.19500
N 	N 	0.51236 0.26470 0.88292 -0.20900
N 	N 	0.12663 0.99130 0.38826 -0.26800
N 	N 	0.23669 0.49930 0.61778 -0.20400
N 	N 	0.12501 0.77050 0.11562 -0.20600
O 	O 	0.75424 0.50320 0.83188 -0.42200
O 	O 	0.50910 0.50880 0.79320 -0.42400
O 	O 	0.52483 0.74940 0.28586 -0.42300
O 	O 	0.32857 0.76720 0.33674 -0.42500
O 	O 	0.73931 0.25120 0.71422 -0.42000
O 	O 	0.49046 0.27300 0.65812 -0.41700
O 	O 	0.21939 0.02230 0.21578 -0.40600
O 	O 	0.41244 0.98540 0.15648 -0.46200
O 	O 	0.92236 0.00320 0.16812 -0.40800
O 	O 	0.71590 0.00880 0.20680 -0.40500
O 	O 	0.23897 0.24940 0.71414 -0.41700
O 	O 	0.99183 0.26720 0.66326 -0.43100
O 	O 	0.02509 0.75120 0.28578 -0.39500
O 	O 	0.83234 0.77300 0.34188 -0.40900
O 	O 	0.00361 0.52230 0.78422 -0.40200
O 	O 	0.25596 0.48540 0.84352 -0.42300
