data_crystal

_cell_length_a 26.64700
_cell_length_b 26.64700
_cell_length_c 26.64700
_cell_angle_alpha 90.00000
_cell_angle_beta  90.00000
_cell_angle_gamma 90.00000

_symmetry_space_group_name_	'P 1'
_symmetry_space_group_name_H-M	'P 1'

loop_
_symmetry_equiv_pos_as_xyz
  x,y,z

loop_
_atom_site_label
_atom_site_type_symbol
_atom_site_fract_x
_atom_site_fract_y
_atom_site_fract_z
_atom_site_charge
O 	O 	0.24260 0.31700 0.05310 -0.41600
O 	O 	0.24260 0.81700 0.55310 -0.40200
O 	O 	0.74260 0.31700 0.55310 -0.40400
O 	O 	0.74260 0.81700 0.05310 -0.41000
O 	O 	0.75740 0.68300 0.05310 -0.41400
O 	O 	0.75740 0.18300 0.55310 -0.40600
O 	O 	0.25740 0.68300 0.55310 -0.40500
O 	O 	0.25740 0.18300 0.05310 -0.41800
O 	O 	0.75740 0.31700 0.94690 -0.37400
O 	O 	0.75740 0.81700 0.44690 -0.40000
O 	O 	0.25740 0.31700 0.44690 -0.40500
O 	O 	0.25740 0.81700 0.94690 -0.37200
O 	O 	0.24260 0.68300 0.94690 -0.37600
O 	O 	0.24260 0.18300 0.44690 -0.40800
O 	O 	0.74260 0.68300 0.44690 -0.40400
O 	O 	0.74260 0.18300 0.94690 -0.37700
O 	O 	0.05310 0.24260 0.31700 -0.41600
O 	O 	0.05310 0.74260 0.81700 -0.41000
O 	O 	0.55310 0.24260 0.81700 -0.40200
O 	O 	0.55310 0.74260 0.31700 -0.40400
O 	O 	0.05310 0.75740 0.68300 -0.41400
O 	O 	0.05310 0.25740 0.18300 -0.41800
O 	O 	0.55310 0.75740 0.18300 -0.40600
O 	O 	0.55310 0.25740 0.68300 -0.40500
O 	O 	0.94690 0.75740 0.31700 -0.37400
O 	O 	0.94690 0.25740 0.81700 -0.37200
O 	O 	0.44690 0.75740 0.81700 -0.40000
O 	O 	0.44690 0.25740 0.31700 -0.40500
O 	O 	0.94690 0.24260 0.68300 -0.37600
O 	O 	0.94690 0.74260 0.18300 -0.37700
O 	O 	0.44690 0.24260 0.18300 -0.40800
O 	O 	0.44690 0.74260 0.68300 -0.40400
O 	O 	0.31700 0.05310 0.24260 -0.41600
O 	O 	0.31700 0.55310 0.74260 -0.40400
O 	O 	0.81700 0.05310 0.74260 -0.41000
O 	O 	0.81700 0.55310 0.24260 -0.40200
O 	O 	0.68300 0.05310 0.75740 -0.41400
O 	O 	0.68300 0.55310 0.25740 -0.40500
O 	O 	0.18300 0.05310 0.25740 -0.41800
O 	O 	0.18300 0.55310 0.75740 -0.40500
O 	O 	0.31700 0.94690 0.75740 -0.37300
O 	O 	0.31700 0.44690 0.25740 -0.40400
O 	O 	0.81700 0.94690 0.25740 -0.37100
O 	O 	0.81700 0.44690 0.75740 -0.39900
O 	O 	0.68300 0.94690 0.24260 -0.37500
O 	O 	0.68300 0.44690 0.74260 -0.40300
O 	O 	0.18300 0.94690 0.74260 -0.37600
O 	O 	0.18300 0.44690 0.24260 -0.40700
O 	O 	0.31700 0.24260 0.94690 -0.37500
O 	O 	0.31700 0.74260 0.44690 -0.40300
O 	O 	0.81700 0.24260 0.44690 -0.40100
O 	O 	0.81700 0.74260 0.94690 -0.37000
O 	O 	0.68300 0.75740 0.94690 -0.37300
O 	O 	0.68300 0.25740 0.44690 -0.40400
O 	O 	0.18300 0.75740 0.44690 -0.40500
O 	O 	0.18300 0.25740 0.94690 -0.37700
O 	O 	0.31700 0.75740 0.05310 -0.41300
O 	O 	0.31700 0.25740 0.55310 -0.40400
O 	O 	0.81700 0.75740 0.55310 -0.39900
O 	O 	0.81700 0.25740 0.05310 -0.41000
O 	O 	0.68300 0.24260 0.05310 -0.41500
O 	O 	0.68300 0.74260 0.55310 -0.40300
O 	O 	0.18300 0.24260 0.55310 -0.40700
O 	O 	0.18300 0.74260 0.05310 -0.41600
O 	O 	0.24260 0.05310 0.68300 -0.41500
O 	O 	0.24260 0.55310 0.18300 -0.40700
O 	O 	0.74260 0.05310 0.18300 -0.41600
O 	O 	0.74260 0.55310 0.68300 -0.40300
O 	O 	0.75740 0.05310 0.31700 -0.41300
O 	O 	0.75740 0.55310 0.81700 -0.39900
O 	O 	0.25740 0.05310 0.81700 -0.41000
O 	O 	0.25740 0.55310 0.31700 -0.40400
O 	O 	0.75740 0.94690 0.68300 -0.37300
O 	O 	0.75740 0.44690 0.18300 -0.40500
O 	O 	0.25740 0.94690 0.18300 -0.37700
O 	O 	0.25740 0.44690 0.68300 -0.40400
O 	O 	0.24260 0.94690 0.31700 -0.37500
O 	O 	0.24260 0.44690 0.81700 -0.40100
O 	O 	0.74260 0.94690 0.81700 -0.37000
O 	O 	0.74260 0.44690 0.31700 -0.40300
O 	O 	0.05310 0.31700 0.75740 -0.41300
O 	O 	0.05310 0.81700 0.25740 -0.41000
O 	O 	0.55310 0.31700 0.25740 -0.40400
O 	O 	0.55310 0.81700 0.75740 -0.39900
O 	O 	0.05310 0.68300 0.24260 -0.41500
O 	O 	0.05310 0.18300 0.74260 -0.41600
O 	O 	0.55310 0.68300 0.74260 -0.40300
O 	O 	0.55310 0.18300 0.24260 -0.40700
O 	O 	0.94690 0.31700 0.24260 -0.37500
O 	O 	0.94690 0.81700 0.74260 -0.37000
O 	O 	0.44690 0.31700 0.74260 -0.40300
O 	O 	0.44690 0.81700 0.24260 -0.40100
O 	O 	0.94690 0.68300 0.75740 -0.37300
O 	O 	0.94690 0.18300 0.25740 -0.37700
O 	O 	0.44690 0.68300 0.25740 -0.40400
O 	O 	0.44690 0.18300 0.75740 -0.40500
O 	O 	0.75740 0.68300 0.94690 -0.37300
O 	O 	0.75740 0.18300 0.44690 -0.40500
O 	O 	0.25740 0.68300 0.44690 -0.40400
O 	O 	0.25740 0.18300 0.94690 -0.37700
O 	O 	0.24260 0.31700 0.94690 -0.37500
O 	O 	0.24260 0.81700 0.44690 -0.40100
O 	O 	0.74260 0.31700 0.44690 -0.40300
O 	O 	0.74260 0.81700 0.94690 -0.37000
O 	O 	0.24260 0.68300 0.05310 -0.41500
O 	O 	0.24260 0.18300 0.55310 -0.40700
O 	O 	0.74260 0.68300 0.55310 -0.40300
O 	O 	0.74260 0.18300 0.05310 -0.41600
O 	O 	0.75740 0.31700 0.05310 -0.41300
O 	O 	0.75740 0.81700 0.55310 -0.39900
O 	O 	0.25740 0.31700 0.55310 -0.40400
O 	O 	0.25740 0.81700 0.05310 -0.41000
O 	O 	0.94690 0.75740 0.68300 -0.37300
O 	O 	0.94690 0.25740 0.18300 -0.37700
O 	O 	0.44690 0.75740 0.18300 -0.40500
O 	O 	0.44690 0.25740 0.68300 -0.40400
O 	O 	0.94690 0.24260 0.31700 -0.37500
O 	O 	0.94690 0.74260 0.81700 -0.37000
O 	O 	0.44690 0.24260 0.81700 -0.40100
O 	O 	0.44690 0.74260 0.31700 -0.40300
O 	O 	0.05310 0.24260 0.68300 -0.41500
O 	O 	0.05310 0.74260 0.18300 -0.41600
O 	O 	0.55310 0.24260 0.18300 -0.40700
O 	O 	0.55310 0.74260 0.68300 -0.40300
O 	O 	0.05310 0.75740 0.31700 -0.41300
O 	O 	0.05310 0.25740 0.81700 -0.41000
O 	O 	0.55310 0.75740 0.81700 -0.39900
O 	O 	0.55310 0.25740 0.31700 -0.40400
O 	O 	0.68300 0.94690 0.75740 -0.37300
O 	O 	0.68300 0.44690 0.25740 -0.40400
O 	O 	0.18300 0.94690 0.25740 -0.37700
O 	O 	0.18300 0.44690 0.75740 -0.40500
O 	O 	0.31700 0.94690 0.24260 -0.37500
O 	O 	0.31700 0.44690 0.74260 -0.40300
O 	O 	0.81700 0.94690 0.74260 -0.37000
O 	O 	0.81700 0.44690 0.24260 -0.40100
O 	O 	0.68300 0.05310 0.24260 -0.41500
O 	O 	0.68300 0.55310 0.74260 -0.40300
O 	O 	0.18300 0.05310 0.74260 -0.41600
O 	O 	0.18300 0.55310 0.24260 -0.40700
O 	O 	0.31700 0.05310 0.75740 -0.41300
O 	O 	0.31700 0.55310 0.25740 -0.40400
O 	O 	0.81700 0.05310 0.25740 -0.41000
O 	O 	0.81700 0.55310 0.75740 -0.39900
O 	O 	0.68300 0.75740 0.05310 -0.41300
O 	O 	0.68300 0.25740 0.55310 -0.40400
O 	O 	0.18300 0.75740 0.55310 -0.40500
O 	O 	0.18300 0.25740 0.05310 -0.41700
O 	O 	0.31700 0.24260 0.05310 -0.41500
O 	O 	0.31700 0.74260 0.55310 -0.40300
O 	O 	0.81700 0.24260 0.55310 -0.40100
O 	O 	0.81700 0.74260 0.05310 -0.40900
O 	O 	0.68300 0.24260 0.94690 -0.37500
O 	O 	0.68300 0.74260 0.44690 -0.40300
O 	O 	0.18300 0.24260 0.44690 -0.40700
O 	O 	0.18300 0.74260 0.94690 -0.37600
O 	O 	0.31700 0.75740 0.94690 -0.37300
O 	O 	0.31700 0.25740 0.44690 -0.40400
O 	O 	0.81700 0.75740 0.44690 -0.39900
O 	O 	0.81700 0.25740 0.94690 -0.37100
O 	O 	0.75740 0.94690 0.31700 -0.37300
O 	O 	0.75740 0.44690 0.81700 -0.39900
O 	O 	0.25740 0.94690 0.81700 -0.37100
O 	O 	0.25740 0.44690 0.31700 -0.40400
O 	O 	0.24260 0.94690 0.68300 -0.37500
O 	O 	0.24260 0.44690 0.18300 -0.40700
O 	O 	0.74260 0.94690 0.18300 -0.37600
O 	O 	0.74260 0.44690 0.68300 -0.40300
O 	O 	0.24260 0.05310 0.31700 -0.41500
O 	O 	0.24260 0.55310 0.81700 -0.40100
O 	O 	0.74260 0.05310 0.81700 -0.40900
O 	O 	0.74260 0.55310 0.31700 -0.40300
O 	O 	0.75740 0.05310 0.68300 -0.41300
O 	O 	0.75740 0.55310 0.18300 -0.40500
O 	O 	0.25740 0.05310 0.18300 -0.41700
O 	O 	0.25740 0.55310 0.68300 -0.40400
O 	O 	0.94690 0.68300 0.24260 -0.37500
O 	O 	0.94690 0.18300 0.74260 -0.37600
O 	O 	0.44690 0.68300 0.74260 -0.40300
O 	O 	0.44690 0.18300 0.24260 -0.40700
O 	O 	0.94690 0.31700 0.75740 -0.37300
O 	O 	0.94690 0.81700 0.25740 -0.37100
O 	O 	0.44690 0.31700 0.25740 -0.40400
O 	O 	0.44690 0.81700 0.75740 -0.39900
O 	O 	0.05310 0.68300 0.75740 -0.41300
O 	O 	0.05310 0.18300 0.25740 -0.41700
O 	O 	0.55310 0.68300 0.25740 -0.40400
O 	O 	0.55310 0.18300 0.75740 -0.40500
O 	O 	0.05310 0.31700 0.24260 -0.41500
O 	O 	0.05310 0.81700 0.74260 -0.40900
O 	O 	0.55310 0.31700 0.74260 -0.40300
O 	O 	0.55310 0.81700 0.24260 -0.40100
Co	Co	0.28976 0.28976 -0.00000 1.16700
Cl	Cl	0.35040 0.35040 -0.00000 -0.38500
Co	Co	0.28976 0.78976 0.50000 1.18800
Cl	Cl	0.35040 0.85040 0.50000 -0.32800
Co	Co	0.78976 0.28976 0.50000 1.18800
Cl	Cl	0.85040 0.35040 0.50000 -0.32800
Co	Co	0.78976 0.78976 -0.00000 1.16800
Cl	Cl	0.85040 0.85040 -0.00000 -0.34900
Co	Co	0.71024 0.71024 -0.00000 1.16700
Cl	Cl	0.64960 0.64960 -0.00000 -0.38300
Co	Co	0.71024 0.21024 0.50000 1.18800
Cl	Cl	0.64960 0.14960 0.50000 -0.35300
Co	Co	0.21024 0.71024 0.50000 1.18800
Cl	Cl	0.14960 0.64960 0.50000 -0.35300
Co	Co	0.21024 0.21024 -0.00000 1.16700
Cl	Cl	0.14960 0.14960 -0.00000 -0.39800
Co	Co	0.71024 0.28976 -0.00000 1.16700
Cl	Cl	0.64960 0.35040 -0.00000 -0.38400
Co	Co	0.71024 0.78976 0.50000 1.18800
Cl	Cl	0.64960 0.85040 0.50000 -0.32700
Co	Co	0.21024 0.28976 0.50000 1.18800
Cl	Cl	0.14960 0.35040 0.50000 -0.35400
Co	Co	0.21024 0.78976 -0.00000 1.16800
Cl	Cl	0.14960 0.85040 -0.00000 -0.37400
Co	Co	0.28976 0.71024 -0.00000 1.16700
Cl	Cl	0.35040 0.64960 -0.00000 -0.38400
Co	Co	0.28976 0.21024 0.50000 1.18800
Cl	Cl	0.35040 0.14960 0.50000 -0.35400
Co	Co	0.78976 0.71024 0.50000 1.18800
Cl	Cl	0.85040 0.64960 0.50000 -0.32700
Co	Co	0.78976 0.21024 -0.00000 1.16800
Cl	Cl	0.85040 0.14960 -0.00000 -0.37400
Co	Co	0.00000 0.28976 0.28976 1.16700
Cl	Cl	0.00000 0.35040 0.35040 -0.38500
Co	Co	0.00000 0.78976 0.78976 1.16800
Cl	Cl	0.00000 0.85040 0.85040 -0.34900
Co	Co	0.50000 0.28976 0.78976 1.18800
Cl	Cl	0.50000 0.35040 0.85040 -0.32800
Co	Co	0.50000 0.78976 0.28976 1.18800
Cl	Cl	0.50000 0.85040 0.35040 -0.32800
Co	Co	0.00000 0.71024 0.71024 1.16700
Cl	Cl	0.00000 0.64960 0.64960 -0.38300
Co	Co	0.00000 0.21024 0.21024 1.16700
Cl	Cl	0.00000 0.14960 0.14960 -0.39800
Co	Co	0.50000 0.71024 0.21024 1.18800
Cl	Cl	0.50000 0.64960 0.14960 -0.35300
Co	Co	0.50000 0.21024 0.71024 1.18800
Cl	Cl	0.50000 0.14960 0.64960 -0.35300
Co	Co	0.00000 0.71024 0.28976 1.16700
Cl	Cl	0.00000 0.64960 0.35040 -0.38400
Co	Co	-0.00000 0.21024 0.78976 1.16800
Cl	Cl	0.00000 0.14960 0.85040 -0.37400
Co	Co	0.50000 0.71024 0.78976 1.18800
Cl	Cl	0.50000 0.64960 0.85040 -0.32700
Co	Co	0.50000 0.21024 0.28976 1.18800
Cl	Cl	0.50000 0.14960 0.35040 -0.35400
Co	Co	0.00000 0.28976 0.71024 1.16700
Cl	Cl	0.00000 0.35040 0.64960 -0.38400
Co	Co	-0.00000 0.78976 0.21024 1.16800
Cl	Cl	0.00000 0.85040 0.14960 -0.37400
Co	Co	0.50000 0.28976 0.21024 1.18800
Cl	Cl	0.50000 0.35040 0.14960 -0.35400
Co	Co	0.50000 0.78976 0.71024 1.18800
Cl	Cl	0.50000 0.85040 0.64960 -0.32700
Co	Co	0.28976 0.00000 0.28976 1.16700
Cl	Cl	0.35040 0.00000 0.35040 -0.38500
Co	Co	0.28976 0.50000 0.78976 1.18800
Cl	Cl	0.35040 0.50000 0.85040 -0.32800
Co	Co	0.78976 0.00000 0.78976 1.16800
Cl	Cl	0.85040 0.00000 0.85040 -0.34900
Co	Co	0.78976 0.50000 0.28976 1.18800
Cl	Cl	0.85040 0.50000 0.35040 -0.32800
Co	Co	0.71024 0.00000 0.71024 1.16700
Cl	Cl	0.64960 0.00000 0.64960 -0.38300
Co	Co	0.71024 0.50000 0.21024 1.18800
Cl	Cl	0.64960 0.50000 0.14960 -0.35300
Co	Co	0.21024 0.00000 0.21024 1.16700
Cl	Cl	0.14960 0.00000 0.14960 -0.39800
Co	Co	0.21024 0.50000 0.71024 1.18800
Cl	Cl	0.14960 0.50000 0.64960 -0.35300
Co	Co	0.28976 0.00000 0.71024 1.16700
Cl	Cl	0.35040 0.00000 0.64960 -0.38400
Co	Co	0.28976 0.50000 0.21024 1.18800
Cl	Cl	0.35040 0.50000 0.14960 -0.35400
Co	Co	0.78976 0.00000 0.21024 1.16800
Cl	Cl	0.85040 0.00000 0.14960 -0.37400
Co	Co	0.78976 0.50000 0.71024 1.18800
Cl	Cl	0.85040 0.50000 0.64960 -0.32700
Co	Co	0.71024 0.00000 0.28976 1.16700
Cl	Cl	0.64960 0.00000 0.35040 -0.38400
Co	Co	0.71024 0.50000 0.78976 1.18800
Cl	Cl	0.64960 0.50000 0.85040 -0.32700
Co	Co	0.21024 0.00000 0.78976 1.16800
Cl	Cl	0.14960 0.00000 0.85040 -0.37400
Co	Co	0.21024 0.50000 0.28976 1.18800
Cl	Cl	0.14960 0.50000 0.35040 -0.35400
C 	C 	0.20240 0.29760 0.06900 0.35700
C 	C 	0.17780 0.32220 0.11430 -0.08400
C 	C 	0.20240 0.79760 0.56900 0.35800
C 	C 	0.17780 0.82220 0.61430 -0.07100
C 	C 	0.79760 0.70240 0.06900 0.35600
C 	C 	0.82220 0.67780 0.11430 -0.07300
C 	C 	0.79760 0.20240 0.56900 0.35800
C 	C 	0.82220 0.17780 0.61430 -0.07100
C 	C 	0.29760 0.20240 0.06900 0.35700
C 	C 	0.32220 0.17780 0.11430 -0.08400
C 	C 	0.79760 0.29760 0.93100 0.35100
C 	C 	0.82220 0.32220 0.88570 -0.05500
C 	C 	0.79760 0.79760 0.43100 0.35700
C 	C 	0.82220 0.82220 0.38570 -0.06000
C 	C 	0.29760 0.29760 0.43100 0.35900
C 	C 	0.32220 0.32220 0.38570 -0.07600
C 	C 	0.20240 0.70240 0.93100 0.35200
C 	C 	0.17780 0.67780 0.88570 -0.06500
C 	C 	0.20240 0.20240 0.43100 0.35900
C 	C 	0.17780 0.17780 0.38570 -0.08200
C 	C 	0.06900 0.20240 0.29760 0.35700
C 	C 	0.11430 0.17780 0.32220 -0.08400
C 	C 	0.56900 0.20240 0.79760 0.35800
C 	C 	0.61430 0.17780 0.82220 -0.07100
C 	C 	0.06900 0.79760 0.70240 0.35600
C 	C 	0.11430 0.82220 0.67780 -0.07300
C 	C 	0.06900 0.29760 0.20240 0.35700
C 	C 	0.11430 0.32220 0.17780 -0.08400
C 	C 	0.56900 0.79760 0.20240 0.35800
C 	C 	0.61430 0.82220 0.17780 -0.07100
C 	C 	0.93100 0.79760 0.29760 0.35100
C 	C 	0.88570 0.82220 0.32220 -0.05500
C 	C 	0.43100 0.79760 0.79760 0.35700
C 	C 	0.38570 0.82220 0.82220 -0.06000
C 	C 	0.43100 0.29760 0.29760 0.35900
C 	C 	0.38570 0.32220 0.32220 -0.07600
C 	C 	0.93100 0.20240 0.70240 0.35200
C 	C 	0.88570 0.17780 0.67780 -0.06500
C 	C 	0.43100 0.20240 0.20240 0.35900
C 	C 	0.38570 0.17780 0.17780 -0.08200
C 	C 	0.29760 0.06900 0.20240 0.35700
C 	C 	0.32220 0.11430 0.17780 -0.08400
C 	C 	0.29760 0.56900 0.70240 0.35900
C 	C 	0.32220 0.61430 0.67780 -0.07500
C 	C 	0.70240 0.06900 0.79760 0.35600
C 	C 	0.67780 0.11430 0.82220 -0.07300
C 	C 	0.70240 0.56900 0.29760 0.35900
C 	C 	0.67780 0.61430 0.32220 -0.07500
C 	C 	0.20240 0.06900 0.29760 0.35700
C 	C 	0.17780 0.11430 0.32220 -0.08400
C 	C 	0.29760 0.93100 0.79760 0.35100
C 	C 	0.32220 0.88570 0.82220 -0.05500
C 	C 	0.29760 0.43100 0.29760 0.35900
C 	C 	0.32220 0.38570 0.32220 -0.07600
C 	C 	0.70240 0.93100 0.20240 0.35200
C 	C 	0.67780 0.88570 0.17780 -0.06500
C 	C 	0.70240 0.43100 0.70240 0.35800
C 	C 	0.67780 0.38570 0.67780 -0.07400
C 	C 	0.20240 0.43100 0.20240 0.35900
C 	C 	0.17780 0.38570 0.17780 -0.08200
C 	C 	0.29760 0.20240 0.93100 0.35200
C 	C 	0.32220 0.17780 0.88570 -0.06500
C 	C 	0.29760 0.70240 0.43100 0.35900
C 	C 	0.32220 0.67780 0.38570 -0.07500
C 	C 	0.70240 0.79760 0.93100 0.35100
C 	C 	0.67780 0.82220 0.88570 -0.05400
C 	C 	0.70240 0.29760 0.43100 0.35900
C 	C 	0.67780 0.32220 0.38570 -0.07500
C 	C 	0.20240 0.29760 0.93100 0.35200
C 	C 	0.17780 0.32220 0.88570 -0.06500
C 	C 	0.29760 0.79760 0.06900 0.35600
C 	C 	0.32220 0.82220 0.11430 -0.07400
C 	C 	0.29760 0.29760 0.56900 0.35900
C 	C 	0.32220 0.32220 0.61430 -0.07600
C 	C 	0.70240 0.20240 0.06900 0.35700
C 	C 	0.67780 0.17780 0.11430 -0.08400
C 	C 	0.70240 0.70240 0.56900 0.35800
C 	C 	0.67780 0.67780 0.61430 -0.07400
C 	C 	0.20240 0.20240 0.56900 0.35900
C 	C 	0.17780 0.17780 0.61430 -0.08200
C 	C 	0.20240 0.06900 0.70240 0.35700
C 	C 	0.17780 0.11430 0.67780 -0.08400
C 	C 	0.20240 0.56900 0.20240 0.35900
C 	C 	0.17780 0.61430 0.17780 -0.08200
C 	C 	0.79760 0.06900 0.29760 0.35600
C 	C 	0.82220 0.11430 0.32220 -0.07400
C 	C 	0.79760 0.56900 0.79760 0.35700
C 	C 	0.82220 0.61430 0.82220 -0.06000
C 	C 	0.29760 0.56900 0.29760 0.35900
C 	C 	0.32220 0.61430 0.32220 -0.07600
C 	C 	0.79760 0.93100 0.70240 0.35100
C 	C 	0.82220 0.88570 0.67780 -0.05400
C 	C 	0.79760 0.43100 0.20240 0.35800
C 	C 	0.82220 0.38570 0.17780 -0.07100
C 	C 	0.29760 0.93100 0.20240 0.35200
C 	C 	0.32220 0.88570 0.17780 -0.06500
C 	C 	0.20240 0.93100 0.29760 0.35200
C 	C 	0.17780 0.88570 0.32220 -0.06500
C 	C 	0.20240 0.43100 0.79760 0.35800
C 	C 	0.17780 0.38570 0.82220 -0.07100
C 	C 	0.06900 0.29760 0.79760 0.35600
C 	C 	0.11430 0.32220 0.82220 -0.07400
C 	C 	0.56900 0.29760 0.29760 0.35900
C 	C 	0.61430 0.32220 0.32220 -0.07600
C 	C 	0.06900 0.70240 0.20240 0.35700
C 	C 	0.11430 0.67780 0.17780 -0.08400
C 	C 	0.56900 0.70240 0.70240 0.35800
C 	C 	0.61430 0.67780 0.67780 -0.07400
C 	C 	0.56900 0.20240 0.20240 0.35900
C 	C 	0.61430 0.17780 0.17780 -0.08200
C 	C 	0.93100 0.29760 0.20240 0.35200
C 	C 	0.88570 0.32220 0.17780 -0.06500
C 	C 	0.43100 0.29760 0.70240 0.35900
C 	C 	0.38570 0.32220 0.67780 -0.07500
C 	C 	0.93100 0.70240 0.79760 0.35100
C 	C 	0.88570 0.67780 0.82220 -0.05400
C 	C 	0.93100 0.20240 0.29760 0.35200
C 	C 	0.88570 0.17780 0.32220 -0.06500
C 	C 	0.43100 0.70240 0.29760 0.35900
C 	C 	0.38570 0.67780 0.32220 -0.07500
C 	C 	0.79760 0.70240 0.93100 0.35100
C 	C 	0.82220 0.67780 0.88570 -0.05400
C 	C 	0.79760 0.20240 0.43100 0.35800
C 	C 	0.82220 0.17780 0.38570 -0.07100
C 	C 	0.20240 0.79760 0.43100 0.35800
C 	C 	0.17780 0.82220 0.38570 -0.07100
C 	C 	0.20240 0.70240 0.06900 0.35700
C 	C 	0.17780 0.67780 0.11430 -0.08400
C 	C 	0.79760 0.29760 0.06900 0.35600
C 	C 	0.82220 0.32220 0.11430 -0.07400
C 	C 	0.79760 0.79760 0.56900 0.35700
C 	C 	0.82220 0.82220 0.61430 -0.06000
C 	C 	0.93100 0.79760 0.70240 0.35100
C 	C 	0.88570 0.82220 0.67780 -0.05400
C 	C 	0.43100 0.79760 0.20240 0.35800
C 	C 	0.38570 0.82220 0.17780 -0.07100
C 	C 	0.43100 0.20240 0.79760 0.35800
C 	C 	0.38570 0.17780 0.82220 -0.07100
C 	C 	0.06900 0.20240 0.70240 0.35700
C 	C 	0.11430 0.17780 0.67780 -0.08400
C 	C 	0.06900 0.79760 0.29760 0.35600
C 	C 	0.11430 0.82220 0.32220 -0.07400
C 	C 	0.56900 0.79760 0.79760 0.35700
C 	C 	0.61430 0.82220 0.82220 -0.06000
C 	C 	0.70240 0.93100 0.79760 0.35100
C 	C 	0.67780 0.88570 0.82220 -0.05400
C 	C 	0.70240 0.43100 0.29760 0.35900
C 	C 	0.67780 0.38570 0.32220 -0.07500
C 	C 	0.29760 0.43100 0.70240 0.35900
C 	C 	0.32220 0.38570 0.67780 -0.07500
C 	C 	0.70240 0.06900 0.20240 0.35700
C 	C 	0.67780 0.11430 0.17780 -0.08400
C 	C 	0.70240 0.56900 0.70240 0.35800
C 	C 	0.67780 0.61430 0.67780 -0.07400
C 	C 	0.29760 0.06900 0.79760 0.35600
C 	C 	0.32220 0.11430 0.82220 -0.07400
C 	C 	0.70240 0.79760 0.06900 0.35600
C 	C 	0.67780 0.82220 0.11430 -0.07300
C 	C 	0.70240 0.29760 0.56900 0.35900
C 	C 	0.67780 0.32220 0.61430 -0.07500
C 	C 	0.29760 0.70240 0.56900 0.35900
C 	C 	0.32220 0.67780 0.61430 -0.07500
C 	C 	0.70240 0.20240 0.93100 0.35200
C 	C 	0.67780 0.17780 0.88570 -0.06500
C 	C 	0.70240 0.70240 0.43100 0.35800
C 	C 	0.67780 0.67780 0.38570 -0.07400
C 	C 	0.29760 0.79760 0.93100 0.35100
C 	C 	0.32220 0.82220 0.88570 -0.05500
C 	C 	0.79760 0.93100 0.29760 0.35100
C 	C 	0.82220 0.88570 0.32220 -0.05500
C 	C 	0.79760 0.43100 0.79760 0.35700
C 	C 	0.82220 0.38570 0.82220 -0.06000
C 	C 	0.20240 0.93100 0.70240 0.35200
C 	C 	0.17780 0.88570 0.67780 -0.06500
C 	C 	0.20240 0.56900 0.79760 0.35800
C 	C 	0.17780 0.61430 0.82220 -0.07100
C 	C 	0.79760 0.06900 0.70240 0.35600
C 	C 	0.82220 0.11430 0.67780 -0.07300
C 	C 	0.79760 0.56900 0.20240 0.35800
C 	C 	0.82220 0.61430 0.17780 -0.07100
C 	C 	0.93100 0.70240 0.20240 0.35200
C 	C 	0.88570 0.67780 0.17780 -0.06500
C 	C 	0.43100 0.70240 0.70240 0.35800
C 	C 	0.38570 0.67780 0.67780 -0.07400
C 	C 	0.93100 0.29760 0.79760 0.35100
C 	C 	0.88570 0.32220 0.82220 -0.05500
C 	C 	0.06900 0.70240 0.79760 0.35600
C 	C 	0.11430 0.67780 0.82220 -0.07300
C 	C 	0.56900 0.70240 0.29760 0.35900
C 	C 	0.61430 0.67780 0.32220 -0.07500
C 	C 	0.56900 0.29760 0.70240 0.35900
C 	C 	0.61430 0.32220 0.67780 -0.07500
C 	C 	0.19840 0.36500 0.13500 0.03200
H 	H 	0.22630 0.37980 0.12020 0.06900
C 	C 	0.69840 0.36500 0.63500 0.02900
H 	H 	0.72630 0.37980 0.62020 0.07500
C 	C 	0.80160 0.63500 0.13500 0.02600
H 	H 	0.77370 0.62020 0.12020 0.07300
C 	C 	0.30160 0.63500 0.63500 0.02900
H 	H 	0.27370 0.62020 0.62020 0.07400
C 	C 	0.30160 0.13500 0.13500 0.03200
H 	H 	0.27370 0.12020 0.12020 0.06600
C 	C 	0.80160 0.36500 0.86500 0.01900
H 	H 	0.77370 0.37980 0.87980 0.08500
C 	C 	0.30160 0.36500 0.36500 0.03100
H 	H 	0.27370 0.37980 0.37980 0.07400
C 	C 	0.19840 0.63500 0.86500 0.02400
H 	H 	0.22630 0.62020 0.87980 0.08200
C 	C 	0.19840 0.13500 0.36500 0.03200
H 	H 	0.22630 0.12020 0.37980 0.06900
C 	C 	0.69840 0.63500 0.36500 0.02900
H 	H 	0.72630 0.62020 0.37980 0.07500
C 	C 	0.13500 0.19840 0.36500 0.03200
H 	H 	0.12020 0.22630 0.37980 0.06900
C 	C 	0.13500 0.69840 0.86500 0.02400
H 	H 	0.12020 0.72630 0.87980 0.08000
C 	C 	0.13500 0.80160 0.63500 0.02600
H 	H 	0.12020 0.77370 0.62020 0.07300
C 	C 	0.13500 0.30160 0.13500 0.03200
H 	H 	0.12020 0.27370 0.12020 0.06600
C 	C 	0.86500 0.80160 0.36500 0.01900
H 	H 	0.87980 0.77370 0.37980 0.08500
C 	C 	0.86500 0.30160 0.86500 0.01700
H 	H 	0.87980 0.27370 0.87980 0.09100
C 	C 	0.36500 0.30160 0.36500 0.03100
H 	H 	0.37980 0.27370 0.37980 0.07400
C 	C 	0.86500 0.19840 0.63500 0.02400
H 	H 	0.87980 0.22630 0.62020 0.08200
C 	C 	0.86500 0.69840 0.13500 0.02400
H 	H 	0.87980 0.72630 0.12020 0.08000
C 	C 	0.36500 0.19840 0.13500 0.03200
H 	H 	0.37980 0.22630 0.12020 0.06900
C 	C 	0.36500 0.13500 0.19840 0.03200
H 	H 	0.37980 0.12020 0.22630 0.06900
C 	C 	0.36500 0.63500 0.69840 0.02900
H 	H 	0.37980 0.62020 0.72630 0.07500
C 	C 	0.63500 0.13500 0.80160 0.02600
H 	H 	0.62020 0.12020 0.77370 0.07300
C 	C 	0.63500 0.63500 0.30160 0.02900
H 	H 	0.62020 0.62020 0.27370 0.07400
C 	C 	0.13500 0.13500 0.30160 0.03200
H 	H 	0.12020 0.12020 0.27370 0.06600
C 	C 	0.36500 0.86500 0.80160 0.01900
H 	H 	0.37980 0.87980 0.77370 0.08500
C 	C 	0.36500 0.36500 0.30160 0.03100
H 	H 	0.37980 0.37980 0.27370 0.07400
C 	C 	0.63500 0.86500 0.19840 0.02400
H 	H 	0.62020 0.87980 0.22630 0.08200
C 	C 	0.63500 0.36500 0.69840 0.02900
H 	H 	0.62020 0.37980 0.72630 0.07500
C 	C 	0.13500 0.36500 0.19840 0.03200
H 	H 	0.12020 0.37980 0.22630 0.06900
C 	C 	0.36500 0.19840 0.86500 0.02500
H 	H 	0.37980 0.22630 0.87980 0.08100
C 	C 	0.36500 0.69840 0.36500 0.03000
H 	H 	0.37980 0.72630 0.37980 0.07500
C 	C 	0.63500 0.80160 0.86500 0.01900
H 	H 	0.62020 0.77370 0.87980 0.08500
C 	C 	0.63500 0.30160 0.36500 0.03000
H 	H 	0.62020 0.27370 0.37980 0.07400
C 	C 	0.13500 0.80160 0.36500 0.02700
H 	H 	0.12020 0.77370 0.37980 0.07300
C 	C 	0.36500 0.80160 0.13500 0.02700
H 	H 	0.37980 0.77370 0.12020 0.07300
C 	C 	0.36500 0.30160 0.63500 0.03000
H 	H 	0.37980 0.27370 0.62020 0.07400
C 	C 	0.63500 0.19840 0.13500 0.03200
H 	H 	0.62020 0.22630 0.12020 0.06900
C 	C 	0.63500 0.69840 0.63500 0.02900
H 	H 	0.62020 0.72630 0.62020 0.07500
C 	C 	0.13500 0.69840 0.13500 0.03200
H 	H 	0.12020 0.72630 0.12020 0.06800
C 	C 	0.19840 0.13500 0.63500 0.03200
H 	H 	0.22630 0.12020 0.62020 0.06900
C 	C 	0.69840 0.13500 0.13500 0.03200
H 	H 	0.72630 0.12020 0.12020 0.06800
C 	C 	0.80160 0.13500 0.36500 0.02700
H 	H 	0.77370 0.12020 0.37980 0.07300
C 	C 	0.30160 0.13500 0.86500 0.02500
H 	H 	0.27370 0.12020 0.87980 0.07800
C 	C 	0.80160 0.86500 0.63500 0.01900
H 	H 	0.77370 0.87980 0.62020 0.08500
C 	C 	0.80160 0.36500 0.13500 0.02700
H 	H 	0.77370 0.37980 0.12020 0.07300
C 	C 	0.30160 0.86500 0.13500 0.02500
H 	H 	0.27370 0.87980 0.12020 0.07800
C 	C 	0.19840 0.86500 0.36500 0.02500
H 	H 	0.22630 0.87980 0.37980 0.08100
C 	C 	0.69840 0.86500 0.86500 0.01600
H 	H 	0.72630 0.87980 0.87980 0.09200
C 	C 	0.69840 0.36500 0.36500 0.03000
H 	H 	0.72630 0.37980 0.37980 0.07500
C 	C 	0.13500 0.36500 0.80160 0.02700
H 	H 	0.12020 0.37980 0.77370 0.07300
C 	C 	0.13500 0.86500 0.30160 0.02500
H 	H 	0.12020 0.87980 0.27370 0.07800
C 	C 	0.13500 0.63500 0.19840 0.03200
H 	H 	0.12020 0.62020 0.22630 0.06900
C 	C 	0.13500 0.13500 0.69840 0.03200
H 	H 	0.12020 0.12020 0.72630 0.06800
C 	C 	0.86500 0.36500 0.19840 0.02500
H 	H 	0.87980 0.37980 0.22630 0.08100
C 	C 	0.86500 0.86500 0.69840 0.01600
H 	H 	0.87980 0.87980 0.72630 0.09200
C 	C 	0.36500 0.36500 0.69840 0.03000
H 	H 	0.37980 0.37980 0.72630 0.07500
C 	C 	0.86500 0.63500 0.80160 0.01900
H 	H 	0.87980 0.62020 0.77370 0.08500
C 	C 	0.86500 0.13500 0.30160 0.02500
H 	H 	0.87980 0.12020 0.27370 0.07800
C 	C 	0.36500 0.13500 0.80160 0.02700
H 	H 	0.37980 0.12020 0.77370 0.07300
C 	C 	0.80160 0.63500 0.86500 0.01900
H 	H 	0.77370 0.62020 0.87980 0.08500
C 	C 	0.30160 0.63500 0.36500 0.03000
H 	H 	0.27370 0.62020 0.37980 0.07400
C 	C 	0.19840 0.36500 0.86500 0.02500
H 	H 	0.22630 0.37980 0.87980 0.08100
C 	C 	0.19840 0.63500 0.13500 0.03200
H 	H 	0.22630 0.62020 0.12020 0.06900
C 	C 	0.69840 0.63500 0.63500 0.02900
H 	H 	0.72630 0.62020 0.62020 0.07500
C 	C 	0.30160 0.36500 0.63500 0.03000
H 	H 	0.27370 0.37980 0.62020 0.07400
C 	C 	0.86500 0.80160 0.63500 0.01900
H 	H 	0.87980 0.77370 0.62020 0.08500
C 	C 	0.86500 0.30160 0.13500 0.02500
H 	H 	0.87980 0.27370 0.12020 0.07800
C 	C 	0.86500 0.19840 0.36500 0.02500
H 	H 	0.87980 0.22630 0.37980 0.08100
C 	C 	0.86500 0.69840 0.86500 0.01600
H 	H 	0.87980 0.72630 0.87980 0.09200
C 	C 	0.13500 0.19840 0.63500 0.03200
H 	H 	0.12020 0.22630 0.62020 0.06900
C 	C 	0.13500 0.30160 0.86500 0.02500
H 	H 	0.12020 0.27370 0.87980 0.07800
C 	C 	0.63500 0.86500 0.80160 0.01900
H 	H 	0.62020 0.87980 0.77370 0.08500
C 	C 	0.63500 0.36500 0.30160 0.03000
H 	H 	0.62020 0.37980 0.27370 0.07400
C 	C 	0.36500 0.86500 0.19840 0.02500
H 	H 	0.37980 0.87980 0.22630 0.08100
C 	C 	0.63500 0.13500 0.19840 0.03200
H 	H 	0.62020 0.12020 0.22630 0.06900
C 	C 	0.63500 0.63500 0.69840 0.02900
H 	H 	0.62020 0.62020 0.72630 0.07500
C 	C 	0.36500 0.63500 0.30160 0.03000
H 	H 	0.37980 0.62020 0.27370 0.07400
C 	C 	0.63500 0.80160 0.13500 0.02600
H 	H 	0.62020 0.77370 0.12020 0.07300
C 	C 	0.63500 0.30160 0.63500 0.02900
H 	H 	0.62020 0.27370 0.62020 0.07400
C 	C 	0.36500 0.69840 0.63500 0.02900
H 	H 	0.37980 0.72630 0.62020 0.07500
C 	C 	0.63500 0.19840 0.86500 0.02400
H 	H 	0.62020 0.22630 0.87980 0.08200
C 	C 	0.63500 0.69840 0.36500 0.02900
H 	H 	0.62020 0.72630 0.37980 0.07500
C 	C 	0.36500 0.80160 0.86500 0.01900
H 	H 	0.37980 0.77370 0.87980 0.08500
C 	C 	0.80160 0.86500 0.36500 0.01900
H 	H 	0.77370 0.87980 0.37980 0.08500
C 	C 	0.30160 0.86500 0.86500 0.01700
H 	H 	0.27370 0.87980 0.87980 0.09100
C 	C 	0.19840 0.86500 0.63500 0.02400
H 	H 	0.22630 0.87980 0.62020 0.08200
C 	C 	0.69840 0.86500 0.13500 0.02400
H 	H 	0.72630 0.87980 0.12020 0.08000
C 	C 	0.69840 0.13500 0.86500 0.02400
H 	H 	0.72630 0.12020 0.87980 0.08000
C 	C 	0.80160 0.13500 0.63500 0.02600
H 	H 	0.77370 0.12020 0.62020 0.07300
C 	C 	0.86500 0.63500 0.19840 0.02400
H 	H 	0.87980 0.62020 0.22630 0.08200
C 	C 	0.86500 0.13500 0.69840 0.02400
H 	H 	0.87980 0.12020 0.72630 0.08000
C 	C 	0.86500 0.36500 0.80160 0.01900
H 	H 	0.87980 0.37980 0.77370 0.08500
C 	C 	0.86500 0.86500 0.30160 0.01700
H 	H 	0.87980 0.87980 0.27370 0.09100
C 	C 	0.13500 0.63500 0.80160 0.02600
H 	H 	0.12020 0.62020 0.77370 0.07300
C 	C 	0.13500 0.86500 0.69840 0.02400
H 	H 	0.12020 0.87980 0.72630 0.08000
