data_crystal

_cell_length_a 26.77100
_cell_length_b 26.77100
_cell_length_c 26.77100
_cell_angle_alpha 90.00000
_cell_angle_beta  90.00000
_cell_angle_gamma 90.00000

_symmetry_space_group_name_	'P 1'
_symmetry_space_group_name_H-M	'P 1'

loop_
_symmetry_equiv_pos_as_xyz
  x,y,z

loop_
_atom_site_label
_atom_site_type_symbol
_atom_site_fract_x
_atom_site_fract_y
_atom_site_fract_z
_atom_site_charge
O 	O 	0.25870 0.18320 0.94540 -0.42300
O 	O 	0.25870 0.68320 0.44540 -0.45200
O 	O 	0.75870 0.18320 0.44540 -0.45300
O 	O 	0.75870 0.68320 0.94540 -0.41900
O 	O 	0.74130 0.81680 0.94540 -0.41400
O 	O 	0.74130 0.31680 0.44540 -0.45100
O 	O 	0.24130 0.81680 0.44540 -0.44800
O 	O 	0.24130 0.31680 0.94540 -0.42100
O 	O 	0.74130 0.18320 0.05460 -0.46600
O 	O 	0.74130 0.68320 0.55460 -0.45100
O 	O 	0.24130 0.18320 0.55460 -0.45600
O 	O 	0.24130 0.68320 0.05460 -0.46500
O 	O 	0.25870 0.81680 0.05460 -0.45900
O 	O 	0.25870 0.31680 0.55460 -0.45100
O 	O 	0.75870 0.81680 0.55460 -0.44400
O 	O 	0.75870 0.31680 0.05460 -0.46200
O 	O 	0.94540 0.25870 0.18320 -0.42200
O 	O 	0.94540 0.75870 0.68320 -0.41800
O 	O 	0.44540 0.25870 0.68320 -0.45100
O 	O 	0.44540 0.75870 0.18320 -0.45200
O 	O 	0.94540 0.74130 0.81680 -0.41300
O 	O 	0.94540 0.24130 0.31680 -0.42000
O 	O 	0.44540 0.74130 0.31680 -0.45000
O 	O 	0.44540 0.24130 0.81680 -0.44700
O 	O 	0.05460 0.74130 0.18320 -0.46500
O 	O 	0.05460 0.24130 0.68320 -0.46400
O 	O 	0.55460 0.74130 0.68320 -0.45000
O 	O 	0.55460 0.24130 0.18320 -0.45500
O 	O 	0.05460 0.25870 0.81680 -0.45900
O 	O 	0.05460 0.75870 0.31680 -0.46200
O 	O 	0.55460 0.25870 0.31680 -0.45100
O 	O 	0.55460 0.75870 0.81680 -0.44400
O 	O 	0.18320 0.94540 0.25870 -0.42200
O 	O 	0.18320 0.44540 0.75870 -0.45200
O 	O 	0.68320 0.94540 0.75870 -0.41800
O 	O 	0.68320 0.44540 0.25870 -0.45100
O 	O 	0.81680 0.94540 0.74130 -0.41300
O 	O 	0.81680 0.44540 0.24130 -0.44700
O 	O 	0.31680 0.94540 0.24130 -0.42000
O 	O 	0.31680 0.44540 0.74130 -0.45000
O 	O 	0.18320 0.05460 0.74130 -0.46500
O 	O 	0.18320 0.55460 0.24130 -0.45500
O 	O 	0.68320 0.05460 0.24130 -0.46400
O 	O 	0.68320 0.55460 0.74130 -0.45000
O 	O 	0.81680 0.05460 0.25870 -0.45900
O 	O 	0.81680 0.55460 0.75870 -0.44400
O 	O 	0.31680 0.05460 0.75870 -0.46200
O 	O 	0.31680 0.55460 0.25870 -0.45100
O 	O 	0.18320 0.25870 0.05460 -0.46600
O 	O 	0.18320 0.75870 0.55460 -0.45200
O 	O 	0.68320 0.25870 0.55460 -0.45100
O 	O 	0.68320 0.75870 0.05460 -0.46200
O 	O 	0.81680 0.74130 0.05460 -0.45800
O 	O 	0.81680 0.24130 0.55460 -0.44700
O 	O 	0.31680 0.74130 0.55460 -0.45000
O 	O 	0.31680 0.24130 0.05460 -0.46400
O 	O 	0.18320 0.74130 0.94540 -0.42100
O 	O 	0.18320 0.24130 0.44540 -0.45500
O 	O 	0.68320 0.74130 0.44540 -0.45000
O 	O 	0.68320 0.24130 0.94540 -0.42000
O 	O 	0.81680 0.25870 0.94540 -0.41500
O 	O 	0.81680 0.75870 0.44540 -0.44400
O 	O 	0.31680 0.25870 0.44540 -0.45100
O 	O 	0.31680 0.75870 0.94540 -0.41700
O 	O 	0.25870 0.94540 0.81680 -0.41500
O 	O 	0.25870 0.44540 0.31680 -0.45100
O 	O 	0.75870 0.94540 0.31680 -0.41700
O 	O 	0.75870 0.44540 0.81680 -0.44400
O 	O 	0.74130 0.94540 0.18320 -0.42100
O 	O 	0.74130 0.44540 0.68320 -0.45000
O 	O 	0.24130 0.94540 0.68320 -0.42000
O 	O 	0.24130 0.44540 0.18320 -0.45500
O 	O 	0.74130 0.05460 0.81680 -0.45800
O 	O 	0.74130 0.55460 0.31680 -0.45000
O 	O 	0.24130 0.05460 0.31680 -0.46400
O 	O 	0.24130 0.55460 0.81680 -0.44700
O 	O 	0.25870 0.05460 0.18320 -0.46600
O 	O 	0.25870 0.55460 0.68320 -0.45100
O 	O 	0.75870 0.05460 0.68320 -0.46200
O 	O 	0.75870 0.55460 0.18320 -0.45200
O 	O 	0.94540 0.18320 0.74130 -0.42100
O 	O 	0.94540 0.68320 0.24130 -0.42000
O 	O 	0.44540 0.18320 0.24130 -0.45500
O 	O 	0.44540 0.68320 0.74130 -0.45000
O 	O 	0.94540 0.81680 0.25870 -0.41500
O 	O 	0.94540 0.31680 0.75870 -0.41700
O 	O 	0.44540 0.81680 0.75870 -0.44400
O 	O 	0.44540 0.31680 0.25870 -0.45100
O 	O 	0.05460 0.18320 0.25870 -0.46600
O 	O 	0.05460 0.68320 0.75870 -0.46200
O 	O 	0.55460 0.18320 0.75870 -0.45200
O 	O 	0.55460 0.68320 0.25870 -0.45100
O 	O 	0.05460 0.81680 0.74130 -0.45800
O 	O 	0.05460 0.31680 0.24130 -0.46400
O 	O 	0.55460 0.81680 0.24130 -0.44700
O 	O 	0.55460 0.31680 0.74130 -0.45000
O 	O 	0.74130 0.81680 0.05460 -0.45800
O 	O 	0.74130 0.31680 0.55460 -0.45000
O 	O 	0.24130 0.81680 0.55460 -0.44700
O 	O 	0.24130 0.31680 0.05460 -0.46400
O 	O 	0.25870 0.18320 0.05460 -0.46600
O 	O 	0.25870 0.68320 0.55460 -0.45100
O 	O 	0.75870 0.18320 0.55460 -0.45200
O 	O 	0.75870 0.68320 0.05460 -0.46200
O 	O 	0.25870 0.81680 0.94540 -0.41500
O 	O 	0.25870 0.31680 0.44540 -0.45100
O 	O 	0.75870 0.81680 0.44540 -0.44400
O 	O 	0.75870 0.31680 0.94540 -0.41700
O 	O 	0.74130 0.18320 0.94540 -0.42100
O 	O 	0.74130 0.68320 0.44540 -0.45000
O 	O 	0.24130 0.18320 0.44540 -0.45500
O 	O 	0.24130 0.68320 0.94540 -0.42000
O 	O 	0.05460 0.74130 0.81680 -0.45800
O 	O 	0.05460 0.24130 0.31680 -0.46400
O 	O 	0.55460 0.74130 0.31680 -0.45000
O 	O 	0.55460 0.24130 0.81680 -0.44700
O 	O 	0.05460 0.25870 0.18320 -0.46600
O 	O 	0.05460 0.75870 0.68320 -0.46200
O 	O 	0.55460 0.25870 0.68320 -0.45100
O 	O 	0.55460 0.75870 0.18320 -0.45200
O 	O 	0.94540 0.25870 0.81680 -0.41500
O 	O 	0.94540 0.75870 0.31680 -0.41700
O 	O 	0.44540 0.25870 0.31680 -0.45100
O 	O 	0.44540 0.75870 0.81680 -0.44400
O 	O 	0.94540 0.74130 0.18320 -0.42100
O 	O 	0.94540 0.24130 0.68320 -0.42000
O 	O 	0.44540 0.74130 0.68320 -0.45000
O 	O 	0.44540 0.24130 0.18320 -0.45500
O 	O 	0.81680 0.05460 0.74130 -0.45800
O 	O 	0.81680 0.55460 0.24130 -0.44700
O 	O 	0.31680 0.05460 0.24130 -0.46400
O 	O 	0.31680 0.55460 0.74130 -0.45000
O 	O 	0.18320 0.05460 0.25870 -0.46600
O 	O 	0.18320 0.55460 0.75870 -0.45200
O 	O 	0.68320 0.05460 0.75870 -0.46200
O 	O 	0.68320 0.55460 0.25870 -0.45100
O 	O 	0.81680 0.94540 0.25870 -0.41500
O 	O 	0.81680 0.44540 0.75870 -0.44400
O 	O 	0.31680 0.94540 0.75870 -0.41700
O 	O 	0.31680 0.44540 0.25870 -0.45100
O 	O 	0.18320 0.94540 0.74130 -0.42100
O 	O 	0.18320 0.44540 0.24130 -0.45500
O 	O 	0.68320 0.94540 0.24130 -0.42000
O 	O 	0.68320 0.44540 0.74130 -0.45000
O 	O 	0.81680 0.74130 0.94540 -0.41300
O 	O 	0.81680 0.24130 0.44540 -0.44700
O 	O 	0.31680 0.74130 0.44540 -0.45000
O 	O 	0.31680 0.24130 0.94540 -0.42000
O 	O 	0.18320 0.25870 0.94540 -0.42200
O 	O 	0.18320 0.75870 0.44540 -0.45200
O 	O 	0.68320 0.25870 0.44540 -0.45100
O 	O 	0.68320 0.75870 0.94540 -0.41800
O 	O 	0.81680 0.25870 0.05460 -0.45900
O 	O 	0.81680 0.75870 0.55460 -0.44400
O 	O 	0.31680 0.25870 0.55460 -0.45100
O 	O 	0.31680 0.75870 0.05460 -0.46200
O 	O 	0.18320 0.74130 0.05460 -0.46500
O 	O 	0.18320 0.24130 0.55460 -0.45500
O 	O 	0.68320 0.74130 0.55460 -0.45000
O 	O 	0.68320 0.24130 0.05460 -0.46400
O 	O 	0.74130 0.05460 0.18320 -0.46500
O 	O 	0.74130 0.55460 0.68320 -0.45000
O 	O 	0.24130 0.05460 0.68320 -0.46400
O 	O 	0.24130 0.55460 0.18320 -0.45500
O 	O 	0.25870 0.05460 0.81680 -0.45900
O 	O 	0.25870 0.55460 0.31680 -0.45100
O 	O 	0.75870 0.05460 0.31680 -0.46200
O 	O 	0.75870 0.55460 0.81680 -0.44400
O 	O 	0.25870 0.94540 0.18320 -0.42200
O 	O 	0.25870 0.44540 0.68320 -0.45100
O 	O 	0.75870 0.94540 0.68320 -0.41800
O 	O 	0.75870 0.44540 0.18320 -0.45200
O 	O 	0.74130 0.94540 0.81680 -0.41300
O 	O 	0.74130 0.44540 0.31680 -0.45000
O 	O 	0.24130 0.94540 0.31680 -0.42000
O 	O 	0.24130 0.44540 0.81680 -0.44700
O 	O 	0.05460 0.81680 0.25870 -0.45900
O 	O 	0.05460 0.31680 0.75870 -0.46200
O 	O 	0.55460 0.81680 0.75870 -0.44400
O 	O 	0.55460 0.31680 0.25870 -0.45100
O 	O 	0.05460 0.18320 0.74130 -0.46500
O 	O 	0.05460 0.68320 0.24130 -0.46400
O 	O 	0.55460 0.18320 0.24130 -0.45500
O 	O 	0.55460 0.68320 0.74130 -0.45000
O 	O 	0.94540 0.81680 0.74130 -0.41300
O 	O 	0.94540 0.31680 0.24130 -0.42000
O 	O 	0.44540 0.81680 0.24130 -0.44700
O 	O 	0.44540 0.31680 0.74130 -0.45000
O 	O 	0.94540 0.18320 0.25870 -0.42200
O 	O 	0.94540 0.68320 0.75870 -0.41800
O 	O 	0.44540 0.18320 0.75870 -0.45200
O 	O 	0.44540 0.68320 0.25870 -0.45100
Mn	Mn	0.20777 0.20777 -0.00000 1.29200
Cl	Cl	0.14539 0.14539 -0.00000 -0.43100
Mn	Mn	0.20777 0.70777 0.50000 1.31200
Cl	Cl	0.14539 0.64539 0.50000 -0.38100
Mn	Mn	0.70777 0.20777 0.50000 1.31200
Cl	Cl	0.64539 0.14539 0.50000 -0.38100
Mn	Mn	0.70777 0.70777 -0.00000 1.29200
Cl	Cl	0.64539 0.64539 -0.00000 -0.41400
Mn	Mn	0.79223 0.79223 -0.00000 1.29400
Cl	Cl	0.85461 0.85461 -0.00000 -0.37400
Mn	Mn	0.79223 0.29223 0.50000 1.31300
Cl	Cl	0.85461 0.35461 0.50000 -0.35300
Mn	Mn	0.29223 0.79223 0.50000 1.31300
Cl	Cl	0.35461 0.85461 0.50000 -0.35300
Mn	Mn	0.29223 0.29223 -0.00000 1.29200
Cl	Cl	0.35461 0.35461 -0.00000 -0.41600
Mn	Mn	0.79223 0.20777 -0.00000 1.29300
Cl	Cl	0.85461 0.14539 -0.00000 -0.40200
Mn	Mn	0.79223 0.70777 0.50000 1.31300
Cl	Cl	0.85461 0.64539 0.50000 -0.35200
Mn	Mn	0.29223 0.20777 0.50000 1.31200
Cl	Cl	0.35461 0.14539 0.50000 -0.38200
Mn	Mn	0.29223 0.70777 -0.00000 1.29200
Cl	Cl	0.35461 0.64539 -0.00000 -0.41500
Mn	Mn	0.20777 0.79223 -0.00000 1.29300
Cl	Cl	0.14539 0.85461 -0.00000 -0.40200
Mn	Mn	0.20777 0.29223 0.50000 1.31200
Cl	Cl	0.14539 0.35461 0.50000 -0.38200
Mn	Mn	0.70777 0.79223 0.50000 1.31300
Cl	Cl	0.64539 0.85461 0.50000 -0.35200
Mn	Mn	0.70777 0.29223 -0.00000 1.29200
Cl	Cl	0.64539 0.35461 -0.00000 -0.41500
Mn	Mn	0.00000 0.20777 0.20777 1.29200
Cl	Cl	-0.00000 0.14539 0.14539 -0.43100
Mn	Mn	0.00000 0.70777 0.70777 1.29200
Cl	Cl	0.00000 0.64539 0.64539 -0.41400
Mn	Mn	0.50000 0.20777 0.70777 1.31200
Cl	Cl	0.50000 0.14539 0.64539 -0.38100
Mn	Mn	0.50000 0.70777 0.20777 1.31200
Cl	Cl	0.50000 0.64539 0.14539 -0.38100
Mn	Mn	-0.00000 0.79223 0.79223 1.29400
Cl	Cl	0.00000 0.85461 0.85461 -0.37400
Mn	Mn	0.00000 0.29223 0.29223 1.29200
Cl	Cl	0.00000 0.35461 0.35461 -0.41600
Mn	Mn	0.50000 0.79223 0.29223 1.31300
Cl	Cl	0.50000 0.85461 0.35461 -0.35300
Mn	Mn	0.50000 0.29223 0.79223 1.31300
Cl	Cl	0.50000 0.35461 0.85461 -0.35300
Mn	Mn	-0.00000 0.79223 0.20777 1.29300
Cl	Cl	-0.00000 0.85461 0.14539 -0.40200
Mn	Mn	0.00000 0.29223 0.70777 1.29200
Cl	Cl	0.00000 0.35461 0.64539 -0.41500
Mn	Mn	0.50000 0.79223 0.70777 1.31300
Cl	Cl	0.50000 0.85461 0.64539 -0.35200
Mn	Mn	0.50000 0.29223 0.20777 1.31200
Cl	Cl	0.50000 0.35461 0.14539 -0.38200
Mn	Mn	-0.00000 0.20777 0.79223 1.29300
Cl	Cl	-0.00000 0.14539 0.85461 -0.40200
Mn	Mn	0.00000 0.70777 0.29223 1.29200
Cl	Cl	0.00000 0.64539 0.35461 -0.41500
Mn	Mn	0.50000 0.20777 0.29223 1.31200
Cl	Cl	0.50000 0.14539 0.35461 -0.38200
Mn	Mn	0.50000 0.70777 0.79223 1.31300
Cl	Cl	0.50000 0.64539 0.85461 -0.35200
Mn	Mn	0.20777 0.00000 0.20777 1.29200
Cl	Cl	0.14539 0.00000 0.14539 -0.43100
Mn	Mn	0.20777 0.50000 0.70777 1.31200
Cl	Cl	0.14539 0.50000 0.64539 -0.38100
Mn	Mn	0.70777 0.00000 0.70777 1.29200
Cl	Cl	0.64539 0.00000 0.64539 -0.41400
Mn	Mn	0.70777 0.50000 0.20777 1.31200
Cl	Cl	0.64539 0.50000 0.14539 -0.38100
Mn	Mn	0.79223 -0.00000 0.79223 1.29400
Cl	Cl	0.85461 0.00000 0.85461 -0.37400
Mn	Mn	0.79223 0.50000 0.29223 1.31300
Cl	Cl	0.85461 0.50000 0.35461 -0.35300
Mn	Mn	0.29223 0.00000 0.29223 1.29200
Cl	Cl	0.35461 0.00000 0.35461 -0.41600
Mn	Mn	0.29223 0.50000 0.79223 1.31300
Cl	Cl	0.35461 0.50000 0.85461 -0.35300
Mn	Mn	0.20777 -0.00000 0.79223 1.29300
Cl	Cl	0.14539 0.00000 0.85461 -0.40200
Mn	Mn	0.20777 0.50000 0.29223 1.31200
Cl	Cl	0.14539 0.50000 0.35461 -0.38200
Mn	Mn	0.70777 0.00000 0.29223 1.29200
Cl	Cl	0.64539 0.00000 0.35461 -0.41500
Mn	Mn	0.70777 0.50000 0.79223 1.31300
Cl	Cl	0.64539 0.50000 0.85461 -0.35200
Mn	Mn	0.79223 0.00000 0.20777 1.29300
Cl	Cl	0.85461 0.00000 0.14539 -0.40200
Mn	Mn	0.79223 0.50000 0.70777 1.31300
Cl	Cl	0.85461 0.50000 0.64539 -0.35200
Mn	Mn	0.29223 0.00000 0.70777 1.29200
Cl	Cl	0.35461 0.00000 0.64539 -0.41500
Mn	Mn	0.29223 0.50000 0.20777 1.31200
Cl	Cl	0.35461 0.50000 0.14539 -0.38200
C 	C 	0.32210 0.17790 0.88500 -0.13100
C 	C 	0.29750 0.20250 0.92980 0.42200
C 	C 	0.32210 0.67790 0.38500 -0.14200
C 	C 	0.29750 0.70250 0.42980 0.43100
C 	C 	0.67790 0.82210 0.88500 -0.11800
C 	C 	0.70250 0.79750 0.92980 0.42000
C 	C 	0.67790 0.32210 0.38500 -0.14200
C 	C 	0.70250 0.29750 0.42980 0.43100
C 	C 	0.17790 0.32210 0.88500 -0.13100
C 	C 	0.20250 0.29750 0.92980 0.42200
C 	C 	0.67790 0.17790 0.11500 -0.15300
C 	C 	0.70250 0.20250 0.07020 0.43100
C 	C 	0.67790 0.67790 0.61500 -0.14100
C 	C 	0.70250 0.70250 0.57020 0.43100
C 	C 	0.17790 0.17790 0.61500 -0.15100
C 	C 	0.20250 0.20250 0.57020 0.43200
C 	C 	0.32210 0.82210 0.11500 -0.14100
C 	C 	0.29750 0.79750 0.07020 0.42900
C 	C 	0.32210 0.32210 0.61500 -0.14300
C 	C 	0.29750 0.29750 0.57020 0.43200
C 	C 	0.88500 0.32210 0.17790 -0.13100
C 	C 	0.92980 0.29750 0.20250 0.42200
C 	C 	0.38500 0.32210 0.67790 -0.14200
C 	C 	0.42980 0.29750 0.70250 0.43100
C 	C 	0.88500 0.67790 0.82210 -0.11800
C 	C 	0.92980 0.70250 0.79750 0.42000
C 	C 	0.88500 0.17790 0.32210 -0.13100
C 	C 	0.92980 0.20250 0.29750 0.42200
C 	C 	0.38500 0.67790 0.32210 -0.14200
C 	C 	0.42980 0.70250 0.29750 0.43100
C 	C 	0.11500 0.67790 0.17790 -0.15300
C 	C 	0.07020 0.70250 0.20250 0.43100
C 	C 	0.61500 0.67790 0.67790 -0.14100
C 	C 	0.57020 0.70250 0.70250 0.43100
C 	C 	0.61500 0.17790 0.17790 -0.15100
C 	C 	0.57020 0.20250 0.20250 0.43200
C 	C 	0.11500 0.32210 0.82210 -0.14100
C 	C 	0.07020 0.29750 0.79750 0.42900
C 	C 	0.61500 0.32210 0.32210 -0.14300
C 	C 	0.57020 0.29750 0.29750 0.43200
C 	C 	0.17790 0.88500 0.32210 -0.13100
C 	C 	0.20250 0.92980 0.29750 0.42200
C 	C 	0.17790 0.38500 0.82210 -0.13800
C 	C 	0.20250 0.42980 0.79750 0.43000
C 	C 	0.82210 0.88500 0.67790 -0.11800
C 	C 	0.79750 0.92980 0.70250 0.42000
C 	C 	0.82210 0.38500 0.17790 -0.13800
C 	C 	0.79750 0.42980 0.20250 0.43000
C 	C 	0.32210 0.88500 0.17790 -0.13100
C 	C 	0.29750 0.92980 0.20250 0.42200
C 	C 	0.17790 0.11500 0.67790 -0.15300
C 	C 	0.20250 0.07020 0.70250 0.43100
C 	C 	0.17790 0.61500 0.17790 -0.15100
C 	C 	0.20250 0.57020 0.20250 0.43200
C 	C 	0.82210 0.11500 0.32210 -0.14100
C 	C 	0.79750 0.07020 0.29750 0.42900
C 	C 	0.82210 0.61500 0.82210 -0.12500
C 	C 	0.79750 0.57020 0.79750 0.42800
C 	C 	0.32210 0.61500 0.32210 -0.14300
C 	C 	0.29750 0.57020 0.29750 0.43200
C 	C 	0.17790 0.32210 0.11500 -0.15400
C 	C 	0.20250 0.29750 0.07020 0.43100
C 	C 	0.17790 0.82210 0.61500 -0.13800
C 	C 	0.20250 0.79750 0.57020 0.43000
C 	C 	0.82210 0.67790 0.11500 -0.14000
C 	C 	0.79750 0.70250 0.07020 0.42900
C 	C 	0.82210 0.17790 0.61500 -0.13800
C 	C 	0.79750 0.20250 0.57020 0.43000
C 	C 	0.32210 0.17790 0.11500 -0.15400
C 	C 	0.29750 0.20250 0.07020 0.43100
C 	C 	0.17790 0.67790 0.88500 -0.13100
C 	C 	0.20250 0.70250 0.92980 0.42200
C 	C 	0.17790 0.17790 0.38500 -0.15100
C 	C 	0.20250 0.20250 0.42980 0.43200
C 	C 	0.82210 0.32210 0.88500 -0.11800
C 	C 	0.79750 0.29750 0.92980 0.42000
C 	C 	0.82210 0.82210 0.38500 -0.12500
C 	C 	0.79750 0.79750 0.42980 0.42800
C 	C 	0.32210 0.32210 0.38500 -0.14300
C 	C 	0.29750 0.29750 0.42980 0.43200
C 	C 	0.32210 0.88500 0.82210 -0.11800
C 	C 	0.29750 0.92980 0.79750 0.42000
C 	C 	0.32210 0.38500 0.32210 -0.14300
C 	C 	0.29750 0.42980 0.29750 0.43200
C 	C 	0.67790 0.88500 0.17790 -0.13100
C 	C 	0.70250 0.92980 0.20250 0.42200
C 	C 	0.67790 0.38500 0.67790 -0.14200
C 	C 	0.70250 0.42980 0.70250 0.43100
C 	C 	0.17790 0.38500 0.17790 -0.15100
C 	C 	0.20250 0.42980 0.20250 0.43200
C 	C 	0.67790 0.11500 0.82210 -0.14000
C 	C 	0.70250 0.07020 0.79750 0.42900
C 	C 	0.67790 0.61500 0.32210 -0.14200
C 	C 	0.70250 0.57020 0.29750 0.43100
C 	C 	0.17790 0.11500 0.32210 -0.15400
C 	C 	0.20250 0.07020 0.29750 0.43100
C 	C 	0.32210 0.11500 0.17790 -0.15400
C 	C 	0.29750 0.07020 0.20250 0.43100
C 	C 	0.32210 0.61500 0.67790 -0.14200
C 	C 	0.29750 0.57020 0.70250 0.43100
C 	C 	0.88500 0.17790 0.67790 -0.13100
C 	C 	0.92980 0.20250 0.70250 0.42200
C 	C 	0.38500 0.17790 0.17790 -0.15100
C 	C 	0.42980 0.20250 0.20250 0.43200
C 	C 	0.88500 0.82210 0.32210 -0.11800
C 	C 	0.92980 0.79750 0.29750 0.42000
C 	C 	0.38500 0.82210 0.82210 -0.12500
C 	C 	0.42980 0.79750 0.79750 0.42800
C 	C 	0.38500 0.32210 0.32210 -0.14300
C 	C 	0.42980 0.29750 0.29750 0.43200
C 	C 	0.11500 0.17790 0.32210 -0.15400
C 	C 	0.07020 0.20250 0.29750 0.43100
C 	C 	0.61500 0.17790 0.82210 -0.13800
C 	C 	0.57020 0.20250 0.79750 0.43000
C 	C 	0.11500 0.82210 0.67790 -0.14000
C 	C 	0.07020 0.79750 0.70250 0.42900
C 	C 	0.11500 0.32210 0.17790 -0.15400
C 	C 	0.07020 0.29750 0.20250 0.43100
C 	C 	0.61500 0.82210 0.17790 -0.13800
C 	C 	0.57020 0.79750 0.20250 0.43000
C 	C 	0.67790 0.82210 0.11500 -0.14000
C 	C 	0.70250 0.79750 0.07020 0.42900
C 	C 	0.67790 0.32210 0.61500 -0.14200
C 	C 	0.70250 0.29750 0.57020 0.43100
C 	C 	0.32210 0.67790 0.61500 -0.14200
C 	C 	0.29750 0.70250 0.57020 0.43100
C 	C 	0.32210 0.82210 0.88500 -0.11800
C 	C 	0.29750 0.79750 0.92980 0.42000
C 	C 	0.67790 0.17790 0.88500 -0.13100
C 	C 	0.70250 0.20250 0.92980 0.42200
C 	C 	0.67790 0.67790 0.38500 -0.14200
C 	C 	0.70250 0.70250 0.42980 0.43100
C 	C 	0.11500 0.67790 0.82210 -0.14000
C 	C 	0.07020 0.70250 0.79750 0.42900
C 	C 	0.61500 0.67790 0.32210 -0.14200
C 	C 	0.57020 0.70250 0.29750 0.43100
C 	C 	0.61500 0.32210 0.67790 -0.14200
C 	C 	0.57020 0.29750 0.70250 0.43100
C 	C 	0.88500 0.32210 0.82210 -0.11800
C 	C 	0.92980 0.29750 0.79750 0.42000
C 	C 	0.88500 0.67790 0.17790 -0.13100
C 	C 	0.92980 0.70250 0.20250 0.42200
C 	C 	0.38500 0.67790 0.67790 -0.14200
C 	C 	0.42980 0.70250 0.70250 0.43100
C 	C 	0.82210 0.11500 0.67790 -0.14000
C 	C 	0.79750 0.07020 0.70250 0.42900
C 	C 	0.82210 0.61500 0.17790 -0.13800
C 	C 	0.79750 0.57020 0.20250 0.43000
C 	C 	0.17790 0.61500 0.82210 -0.13800
C 	C 	0.20250 0.57020 0.79750 0.43000
C 	C 	0.82210 0.88500 0.32210 -0.11800
C 	C 	0.79750 0.92980 0.29750 0.42000
C 	C 	0.82210 0.38500 0.82210 -0.12500
C 	C 	0.79750 0.42980 0.79750 0.42800
C 	C 	0.17790 0.88500 0.67790 -0.13100
C 	C 	0.20250 0.92980 0.70250 0.42200
C 	C 	0.82210 0.67790 0.88500 -0.11800
C 	C 	0.79750 0.70250 0.92980 0.42000
C 	C 	0.82210 0.17790 0.38500 -0.13800
C 	C 	0.79750 0.20250 0.42980 0.43000
C 	C 	0.17790 0.82210 0.38500 -0.13800
C 	C 	0.20250 0.79750 0.42980 0.43000
C 	C 	0.82210 0.32210 0.11500 -0.14100
C 	C 	0.79750 0.29750 0.07020 0.42900
C 	C 	0.82210 0.82210 0.61500 -0.12500
C 	C 	0.79750 0.79750 0.57020 0.42800
C 	C 	0.17790 0.67790 0.11500 -0.15300
C 	C 	0.20250 0.70250 0.07020 0.43100
C 	C 	0.67790 0.11500 0.17790 -0.15300
C 	C 	0.70250 0.07020 0.20250 0.43100
C 	C 	0.67790 0.61500 0.67790 -0.14100
C 	C 	0.70250 0.57020 0.70250 0.43100
C 	C 	0.32210 0.11500 0.82210 -0.14100
C 	C 	0.29750 0.07020 0.79750 0.42900
C 	C 	0.32210 0.38500 0.67790 -0.14200
C 	C 	0.29750 0.42980 0.70250 0.43100
C 	C 	0.67790 0.88500 0.82210 -0.11800
C 	C 	0.70250 0.92980 0.79750 0.42000
C 	C 	0.67790 0.38500 0.32210 -0.14200
C 	C 	0.70250 0.42980 0.29750 0.43100
C 	C 	0.11500 0.82210 0.32210 -0.14100
C 	C 	0.07020 0.79750 0.29750 0.42900
C 	C 	0.61500 0.82210 0.82210 -0.12500
C 	C 	0.57020 0.79750 0.79750 0.42800
C 	C 	0.11500 0.17790 0.67790 -0.15300
C 	C 	0.07020 0.20250 0.70250 0.43100
C 	C 	0.88500 0.82210 0.67790 -0.11800
C 	C 	0.92980 0.79750 0.70250 0.42000
C 	C 	0.38500 0.82210 0.17790 -0.13800
C 	C 	0.42980 0.79750 0.20250 0.43000
C 	C 	0.38500 0.17790 0.82210 -0.13800
C 	C 	0.42980 0.20250 0.79750 0.43000
C 	C 	0.30120 0.13630 0.86370 0.09000
H 	H 	0.27180 0.12170 0.87830 0.05300
C 	C 	0.30120 0.63630 0.36370 0.09500
H 	H 	0.27180 0.62170 0.37830 0.04900
C 	C 	0.80120 0.13630 0.36370 0.09200
H 	H 	0.77180 0.12170 0.37830 0.04700
C 	C 	0.80120 0.63630 0.86370 0.08200
H 	H 	0.77180 0.62170 0.87830 0.06100
C 	C 	0.69880 0.86370 0.86370 0.08000
H 	H 	0.72820 0.87830 0.87830 0.06800
C 	C 	0.69880 0.36370 0.36370 0.09500
H 	H 	0.72820 0.37830 0.37830 0.05000
C 	C 	0.19880 0.86370 0.36370 0.08900
H 	H 	0.22820 0.87830 0.37830 0.05700
C 	C 	0.19880 0.36370 0.86370 0.08900
H 	H 	0.22820 0.37830 0.87830 0.05700
C 	C 	0.69880 0.13630 0.13630 0.09800
H 	H 	0.72820 0.12170 0.12170 0.04200
C 	C 	0.69880 0.63630 0.63630 0.09300
H 	H 	0.72820 0.62170 0.62170 0.05000
C 	C 	0.19880 0.13630 0.63630 0.09800
H 	H 	0.22820 0.12170 0.62170 0.04300
C 	C 	0.19880 0.63630 0.13630 0.09800
H 	H 	0.22820 0.62170 0.12170 0.04300
C 	C 	0.30120 0.86370 0.13630 0.09000
H 	H 	0.27180 0.87830 0.12170 0.05300
C 	C 	0.30120 0.36370 0.63630 0.09500
H 	H 	0.27180 0.37830 0.62170 0.04900
C 	C 	0.80120 0.86370 0.63630 0.08200
H 	H 	0.77180 0.87830 0.62170 0.06100
C 	C 	0.80120 0.36370 0.13630 0.09200
H 	H 	0.77180 0.37830 0.12170 0.04700
C 	C 	0.86370 0.30120 0.13630 0.09000
H 	H 	0.87830 0.27180 0.12170 0.05300
C 	C 	0.86370 0.80120 0.63630 0.08200
H 	H 	0.87830 0.77180 0.62170 0.06100
C 	C 	0.36370 0.30120 0.63630 0.09500
H 	H 	0.37830 0.27180 0.62170 0.04900
C 	C 	0.36370 0.80120 0.13630 0.09200
H 	H 	0.37830 0.77180 0.12170 0.04700
C 	C 	0.86370 0.69880 0.86370 0.08000
H 	H 	0.87830 0.72820 0.87830 0.06800
C 	C 	0.86370 0.19880 0.36370 0.08900
H 	H 	0.87830 0.22820 0.37830 0.05700
C 	C 	0.36370 0.69880 0.36370 0.09500
H 	H 	0.37830 0.72820 0.37830 0.05000
C 	C 	0.36370 0.19880 0.86370 0.08900
H 	H 	0.37830 0.22820 0.87830 0.05700
C 	C 	0.13630 0.69880 0.13630 0.09800
H 	H 	0.12170 0.72820 0.12170 0.04200
C 	C 	0.13630 0.19880 0.63630 0.09800
H 	H 	0.12170 0.22820 0.62170 0.04300
C 	C 	0.63630 0.69880 0.63630 0.09300
H 	H 	0.62170 0.72820 0.62170 0.05000
C 	C 	0.63630 0.19880 0.13630 0.09800
H 	H 	0.62170 0.22820 0.12170 0.04300
C 	C 	0.13630 0.30120 0.86370 0.09000
H 	H 	0.12170 0.27180 0.87830 0.05300
C 	C 	0.13630 0.80120 0.36370 0.09200
H 	H 	0.12170 0.77180 0.37830 0.04700
C 	C 	0.63630 0.30120 0.36370 0.09500
H 	H 	0.62170 0.27180 0.37830 0.04900
C 	C 	0.63630 0.80120 0.86370 0.08200
H 	H 	0.62170 0.77180 0.87830 0.06100
C 	C 	0.13630 0.86370 0.30120 0.09000
H 	H 	0.12170 0.87830 0.27180 0.05300
C 	C 	0.13630 0.36370 0.80120 0.09200
H 	H 	0.12170 0.37830 0.77180 0.04700
C 	C 	0.63630 0.86370 0.80120 0.08200
H 	H 	0.62170 0.87830 0.77180 0.06100
C 	C 	0.63630 0.36370 0.30120 0.09500
H 	H 	0.62170 0.37830 0.27180 0.04900
C 	C 	0.86370 0.86370 0.69880 0.08000
H 	H 	0.87830 0.87830 0.72820 0.06800
C 	C 	0.86370 0.36370 0.19880 0.08900
H 	H 	0.87830 0.37830 0.22820 0.05700
C 	C 	0.36370 0.86370 0.19880 0.08900
H 	H 	0.37830 0.87830 0.22820 0.05700
C 	C 	0.36370 0.36370 0.69880 0.09500
H 	H 	0.37830 0.37830 0.72820 0.05000
C 	C 	0.13630 0.13630 0.69880 0.09800
H 	H 	0.12170 0.12170 0.72820 0.04200
C 	C 	0.13630 0.63630 0.19880 0.09800
H 	H 	0.12170 0.62170 0.22820 0.04300
C 	C 	0.63630 0.13630 0.19880 0.09800
H 	H 	0.62170 0.12170 0.22820 0.04300
C 	C 	0.63630 0.63630 0.69880 0.09300
H 	H 	0.62170 0.62170 0.72820 0.05000
C 	C 	0.86370 0.13630 0.30120 0.09000
H 	H 	0.87830 0.12170 0.27180 0.05300
C 	C 	0.86370 0.63630 0.80120 0.08200
H 	H 	0.87830 0.62170 0.77180 0.06100
C 	C 	0.36370 0.13630 0.80120 0.09200
H 	H 	0.37830 0.12170 0.77180 0.04700
C 	C 	0.36370 0.63630 0.30120 0.09500
H 	H 	0.37830 0.62170 0.27180 0.04900
C 	C 	0.13630 0.30120 0.13630 0.09900
H 	H 	0.12170 0.27180 0.12170 0.04000
C 	C 	0.13630 0.80120 0.63630 0.09100
H 	H 	0.12170 0.77180 0.62170 0.04800
C 	C 	0.63630 0.30120 0.63630 0.09400
H 	H 	0.62170 0.27180 0.62170 0.04900
C 	C 	0.63630 0.80120 0.13630 0.09100
H 	H 	0.62170 0.77180 0.12170 0.04800
C 	C 	0.86370 0.69880 0.13630 0.08900
H 	H 	0.87830 0.72820 0.12170 0.05500
C 	C 	0.86370 0.19880 0.63630 0.08900
H 	H 	0.87830 0.22820 0.62170 0.05700
C 	C 	0.36370 0.69880 0.63630 0.09400
H 	H 	0.37830 0.72820 0.62170 0.05000
C 	C 	0.36370 0.19880 0.13630 0.09800
H 	H 	0.37830 0.22820 0.12170 0.04300
C 	C 	0.13630 0.69880 0.86370 0.08900
H 	H 	0.12170 0.72820 0.87830 0.05500
C 	C 	0.13630 0.19880 0.36370 0.09800
H 	H 	0.12170 0.22820 0.37830 0.04300
C 	C 	0.63630 0.69880 0.36370 0.09400
H 	H 	0.62170 0.72820 0.37830 0.05000
C 	C 	0.63630 0.19880 0.86370 0.08900
H 	H 	0.62170 0.22820 0.87830 0.05700
C 	C 	0.86370 0.30120 0.86370 0.08000
H 	H 	0.87830 0.27180 0.87830 0.06700
C 	C 	0.86370 0.80120 0.36370 0.08300
H 	H 	0.87830 0.77180 0.37830 0.06100
C 	C 	0.36370 0.30120 0.36370 0.09500
H 	H 	0.37830 0.27180 0.37830 0.04800
C 	C 	0.36370 0.80120 0.86370 0.08300
H 	H 	0.37830 0.77180 0.87830 0.06100
C 	C 	0.30120 0.86370 0.86370 0.08000
H 	H 	0.27180 0.87830 0.87830 0.06700
C 	C 	0.30120 0.36370 0.36370 0.09500
H 	H 	0.27180 0.37830 0.37830 0.04800
C 	C 	0.80120 0.86370 0.36370 0.08300
H 	H 	0.77180 0.87830 0.37830 0.06100
C 	C 	0.80120 0.36370 0.86370 0.08300
H 	H 	0.77180 0.37830 0.87830 0.06100
C 	C 	0.69880 0.86370 0.13630 0.08900
H 	H 	0.72820 0.87830 0.12170 0.05500
C 	C 	0.69880 0.36370 0.63630 0.09400
H 	H 	0.72820 0.37830 0.62170 0.05000
C 	C 	0.19880 0.86370 0.63630 0.08900
H 	H 	0.22820 0.87830 0.62170 0.05700
C 	C 	0.19880 0.36370 0.13630 0.09800
H 	H 	0.22820 0.37830 0.12170 0.04300
C 	C 	0.69880 0.13630 0.86370 0.08900
H 	H 	0.72820 0.12170 0.87830 0.05500
C 	C 	0.69880 0.63630 0.36370 0.09400
H 	H 	0.72820 0.62170 0.37830 0.05000
C 	C 	0.19880 0.13630 0.36370 0.09800
H 	H 	0.22820 0.12170 0.37830 0.04300
C 	C 	0.19880 0.63630 0.86370 0.08900
H 	H 	0.22820 0.62170 0.87830 0.05700
C 	C 	0.30120 0.13630 0.13630 0.09900
H 	H 	0.27180 0.12170 0.12170 0.04000
C 	C 	0.30120 0.63630 0.63630 0.09400
H 	H 	0.27180 0.62170 0.62170 0.04900
C 	C 	0.80120 0.13630 0.63630 0.09100
H 	H 	0.77180 0.12170 0.62170 0.04800
C 	C 	0.80120 0.63630 0.13630 0.09100
H 	H 	0.77180 0.62170 0.12170 0.04800
C 	C 	0.86370 0.13630 0.69880 0.08900
H 	H 	0.87830 0.12170 0.72820 0.05500
C 	C 	0.86370 0.63630 0.19880 0.08900
H 	H 	0.87830 0.62170 0.22820 0.05700
C 	C 	0.36370 0.13630 0.19880 0.09800
H 	H 	0.37830 0.12170 0.22820 0.04300
C 	C 	0.36370 0.63630 0.69880 0.09400
H 	H 	0.37830 0.62170 0.72820 0.05000
C 	C 	0.86370 0.86370 0.30120 0.08000
H 	H 	0.87830 0.87830 0.27180 0.06700
C 	C 	0.86370 0.36370 0.80120 0.08300
H 	H 	0.87830 0.37830 0.77180 0.06100
C 	C 	0.36370 0.86370 0.80120 0.08300
H 	H 	0.37830 0.87830 0.77180 0.06100
C 	C 	0.36370 0.36370 0.30120 0.09500
H 	H 	0.37830 0.37830 0.27180 0.04800
C 	C 	0.13630 0.13630 0.30120 0.09900
H 	H 	0.12170 0.12170 0.27180 0.04000
C 	C 	0.13630 0.63630 0.80120 0.09100
H 	H 	0.12170 0.62170 0.77180 0.04800
C 	C 	0.63630 0.13630 0.80120 0.09100
H 	H 	0.62170 0.12170 0.77180 0.04800
C 	C 	0.63630 0.63630 0.30120 0.09400
H 	H 	0.62170 0.62170 0.27180 0.04900
C 	C 	0.13630 0.86370 0.69880 0.08900
H 	H 	0.12170 0.87830 0.72820 0.05500
C 	C 	0.13630 0.36370 0.19880 0.09800
H 	H 	0.12170 0.37830 0.22820 0.04300
C 	C 	0.63630 0.86370 0.19880 0.08900
H 	H 	0.62170 0.87830 0.22820 0.05700
C 	C 	0.63630 0.36370 0.69880 0.09400
H 	H 	0.62170 0.37830 0.72820 0.05000
